
 Fire Dynamics Simulator

 Current Date     : June 12, 2023  11:07:20
 Revision         : FDS-6.8.0-0-g886e009-release
 Revision Date    : Tue Apr 18 07:06:40 2023 -0400
 Compiler         : Intel ifort 2021.7.1
 Compilation Date : Apr 18, 2023  15:18:51

 MPI Enabled;    Number of MPI Processes:       1
 OpenMP Disabled

 MPI version: 3.1
 MPI library version: Open MPI v4.1.4, package: Open MPI mnv@excess.el.nist.gov Distribution, ident: 4.1.4, repo rev: v4.1.4, May 26, 2022

 Job TITLE        : job1
 Job ID string    : job1


 Grid Dimensions, Mesh     1

   Cells in the X Direction            30
   Cells in the Y Direction            40
   Cells in the Z Direction            30
   Number of Grid Cells             36000


 Physical Dimensions, Mesh     1

   Length (m)                       3.000
   Width  (m)                       4.000
   Height (m)                       3.000
   Initial Time Step (s)            0.092

 Total Number of Grid Cells         36000


 Maximum Cell Aspect Ratio          1.000
 CFL Velocity Norm                      2


 Miscellaneous Parameters

   Simulation Start Time (s)          0.0
   Simulation End Time (s)           60.0
   Background Pressure (Pa)     101325.00
   Ambient Temperature (C)          20.00

   3D Cartesian
   VLES Calculation
   Eddy Viscosity Model:  Deardorff (C_DEARDORFF = 0.10)
   Surface INERT Eddy Viscosity Model:  WALE (C_WALE = 0.60)
   Surface fire1 Eddy Viscosity Model:  WALE (C_WALE = 0.60)
   Turbulent Prandtl Number:         0.50
   Turbulent Schmidt Number:         0.50


 Pressure solver information

   Solver:                            FFT
   Velocity tolerance (m/s):    5.000E-02
   Press eqn res tol (1/s^2):   2.000E+03
   Max pressure iterations:            10


 Background Stratification

      Z (m)     P_0 (Pa)    TMP_0 (C)
   ------------------------------------
        2.95    101290.42     20.00
        2.85    101291.59     20.00
        2.75    101292.77     20.00
        2.65    101293.93     20.00
        2.55    101295.11     20.00
        2.45    101296.28     20.00
        2.35    101297.45     20.00
        2.25    101298.62     20.00
        2.15    101299.80     20.00
        2.05    101300.96     20.00
        1.95    101302.14     20.00
        1.85    101303.31     20.00
        1.75    101304.48     20.00
        1.65    101305.65     20.00
        1.55    101306.83     20.00
        1.45    101308.00     20.00
        1.35    101309.17     20.00
        1.25    101310.34     20.00
        1.15    101311.51     20.00
        1.05    101312.69     20.00
        0.95    101313.86     20.00
        0.85    101315.03     20.00
        0.75    101316.20     20.00
        0.65    101317.38     20.00
        0.55    101318.54     20.00
        0.45    101319.72     20.00
        0.35    101320.89     20.00
        0.25    101322.06     20.00
        0.15    101323.23     20.00
        0.05    101324.41     20.00


 Mass Fraction Transformation Matrix to Convert Species Mixtures (Columns) to Primitive Species (Rows)

                         AIR       PROPANE   PRODUCTS
   NITROGEN              0.762470  0.000000  0.716833
   OXYGEN                0.230997  0.000000  0.000000
   CARBON DIOXIDE        0.000591  0.000000  0.179768
   WATER VAPOR           0.005941  0.000000  0.103399
   CARBON MONOXIDE       0.000000  0.000000  0.000000
   SOOT                  0.000000  0.000000  0.000000
   HYDROGEN              0.000000  0.000000  0.000000
   HYDROGEN CYANIDE      0.000000  0.000000  0.000000
   PROPANE               0.000000  1.000000  0.000000


 Primitive Species Information

   NITROGEN
   Gas Species
   Molecular Weight (g/mol)                28.01340
   Ambient Density (kg/m^3)                1.165
           Enthalpy of Formation (J/kg)  0.000E+00

   OXYGEN
   Gas Species
   Molecular Weight (g/mol)                31.99880
   Ambient Density (kg/m^3)                1.330
           Enthalpy of Formation (J/kg)  0.000E+00

   CARBON DIOXIDE
   Gas Species
   Molecular Weight (g/mol)                44.00950
   Ambient Density (kg/m^3)                1.830
           Enthalpy of Formation (J/kg) -8.941E+06

   WATER VAPOR
   Gas Species
   Molecular Weight (g/mol)                18.01528
   Ambient Density (kg/m^3)                0.749
           Enthalpy of Formation (J/kg) -1.342E+07

   CARBON MONOXIDE
   Gas Species
   Molecular Weight (g/mol)                28.01010
   Ambient Density (kg/m^3)                1.164
           Enthalpy of Formation (J/kg) -3.946E+06

   SOOT
   Gas Species
   Molecular Weight (g/mol)                12.01070
   Ambient Density (kg/m^3)                0.499
           Enthalpy of Formation (J/kg)  0.000E+00

   HYDROGEN
   Gas Species
   Molecular Weight (g/mol)                 2.01588
   Ambient Density (kg/m^3)                0.084
           Enthalpy of Formation (J/kg)  0.000E+00

   HYDROGEN CYANIDE
   Gas Species
   Molecular Weight (g/mol)                27.02534
   Ambient Density (kg/m^3)                1.123
           Enthalpy of Formation (J/kg)  4.924E+06

   PROPANE
   Gas Species
   Molecular Weight (g/mol)                44.09562
   Ambient Density (kg/m^3)                1.833
           Enthalpy of Formation (J/kg) -2.374E+06


 Tracked (Lumped) Species Information

   AIR
   Molecular Weight (g/mol)            28.75198
   Ambient Density (kg/m^3)            1.195
   Initial Mass Fraction               1.000
   Enthalpy of Formation (J/kg)     -8.504E+04

   Sub Species                    Mass Fraction     Mole Fraction
   NITROGEN                       7.624699E-01      7.825727E-01
   OXYGEN                         2.309974E-01      2.075588E-01
   CARBON DIOXIDE                 5.914650E-04      3.864118E-04
   WATER VAPOR                    5.941209E-03      9.482037E-03
 
     Viscosity (kg/m/s) Ambient,  293 K:  1.796E-05
                                  500 K:  2.612E-05
                                 1000 K:  4.125E-05
                                 1500 K:  5.371E-05
                                 2000 K:  6.476E-05
   Therm. Cond. (W/m/K) Ambient,  293 K:  2.556E-02
                                  500 K:  3.814E-02
                                 1000 K:  6.686E-02
                                 1500 K:  9.249E-02
                                 2000 K:  1.153E-01
        Enthalpy (J/kg) Ambient,  293 K: -9.012E+04
                                  500 K:  1.222E+05
                                 1000 K:  6.721E+05
                                 1500 K:  1.270E+06
                                 2000 K:  1.896E+06
    Spec. Heat (J/kg/K) Ambient,  293 K:  1.016E+03
                                  500 K:  1.042E+03
                                 1000 K:  1.156E+03
                                 1500 K:  1.229E+03
                                 2000 K:  1.270E+03
   Diff. Coeff. (m^2/s) Ambient,  293 K:  1.991E-05
                                  500 K:  4.961E-05
                                 1000 K:  1.580E-04
                                 1500 K:  3.095E-04
                                 2000 K:  4.984E-04
 Gibbs Energy Amb. (kJ/mol),  293 K: -5.873E+01
                                  500 K: -1.007E+02
                                 1000 K: -2.117E+02
                                 1500 K: -3.312E+02
                                 2000 K: -4.568E+02

   PROPANE
   Molecular Weight (g/mol)            44.09562
   Ambient Density (kg/m^3)            1.833
   Initial Mass Fraction               0.000
   Enthalpy of Formation (J/kg)     -2.374E+06

   Sub Species                    Mass Fraction     Mole Fraction
   PROPANE                        1.000000E+00      1.000000E+00
 
     Viscosity (kg/m/s) Ambient,  293 K:  8.079E-06
                                  500 K:  1.310E-05
                                 1000 K:  2.234E-05
                                 1500 K:  2.955E-05
                                 2000 K:  3.574E-05
   Therm. Cond. (W/m/K) Ambient,  293 K:  1.821E-02
                                  500 K:  4.581E-02
                                 1000 K:  1.212E-01
                                 1500 K:  1.890E-01
                                 2000 K:  2.465E-01
        Enthalpy (J/kg) Ambient,  293 K: -2.382E+06
                                  500 K: -1.946E+06
                                 1000 K: -2.769E+05
                                 1500 K:  1.900E+06
                                 2000 K:  4.336E+06
    Spec. Heat (J/kg/K) Ambient,  293 K:  1.646E+03
                                  500 K:  2.553E+03
                                 1000 K:  3.960E+03
                                 1500 K:  4.669E+03
                                 2000 K:  5.034E+03
   Diff. Coeff. (m^2/s) Ambient,  293 K:  1.110E-05
                                  500 K:  2.862E-05
                                 1000 K:  9.316E-05
                                 1500 K:  1.833E-04
                                 2000 K:  2.954E-04
 Gibbs Energy Amb. (kJ/mol),  293 K: -1.839E+02
                                  500 K: -2.447E+02
                                 1000 K: -4.295E+02
                                 1500 K: -6.584E+02
                                 2000 K: -9.217E+02

   PRODUCTS
   Molecular Weight (g/mol)            28.23805
   Ambient Density (kg/m^3)            1.174
   Initial Mass Fraction               0.000
   Enthalpy of Formation (J/kg)     -2.995E+06

   Sub Species                    Mass Fraction     Mole Fraction
   NITROGEN                       7.168330E-01      7.225815E-01
   CARBON DIOXIDE                 1.797677E-01      1.153453E-01
   WATER VAPOR                    1.033993E-01      1.620732E-01
   CARBON MONOXIDE                0.000000E+00      0.000000E+00
   SOOT                           0.000000E+00      0.000000E+00
   HYDROGEN CYANIDE               0.000000E+00      0.000000E+00
 
     Viscosity (kg/m/s) Ambient,  293 K:  1.613E-05
                                  500 K:  2.391E-05
                                 1000 K:  3.896E-05
                                 1500 K:  5.146E-05
                                 2000 K:  6.248E-05
   Therm. Cond. (W/m/K) Ambient,  293 K:  2.342E-02
                                  500 K:  3.618E-02
                                 1000 K:  6.708E-02
                                 1500 K:  9.621E-02
                                 2000 K:  1.223E-01
        Enthalpy (J/kg) Ambient,  293 K: -3.001E+06
                                  500 K: -2.770E+06
                                 1000 K: -2.160E+06
                                 1500 K: -1.484E+06
                                 2000 K: -7.662E+05
    Spec. Heat (J/kg/K) Ambient,  293 K:  1.089E+03
                                  500 K:  1.141E+03
                                 1000 K:  1.295E+03
                                 1500 K:  1.402E+03
                                 2000 K:  1.464E+03
   Diff. Coeff. (m^2/s) Ambient,  293 K:  1.950E-05
                                  500 K:  4.950E-05
                                 1000 K:  1.599E-04
                                 1500 K:  3.143E-04
                                 2000 K:  5.070E-04
 Gibbs Energy Amb. (kJ/mol),  293 K: -1.530E+02
                                  500 K: -1.952E+02
                                 1000 K: -3.077E+02
                                 1500 K: -4.299E+02
                                 2000 K: -5.589E+02


 Gas Phase Reaction Information

      Fuel                                           Heat of Combustion (kJ/kg)
      PROPANE                                                        46334.6246

      Primitive Species Stoich. Coeff.
      Species ID                                                          Molar
      OXYGEN                                                          -5.000000
      CARBON DIOXIDE                                                   3.000000
      WATER VAPOR                                                      4.000000
      PROPANE                                                         -1.000000

      Tracked (Lumped) Species Stoich. Coeff.
      Species ID                                             Molar         Mass
      AIR                                               -24.089557   -15.707286
      PROPANE                                            -1.000000    -1.000000
      PRODUCTS                                           26.089557    16.707286

      Reaction Kinetics

      Fast chemistry

      ODE Solver:  EXPLICIT EULER

      Extinction Model:  EXTINCTION 1
      Auto-Ignition Temperature (C):            -273.1
      Critical Flame Temperature (C):           1447.0

      Prescribed Radiative Fraction:             0.290


 Material Information


 Surface Conditions

   0 INERT (DEFAULT)

   1 fire1
     HRR Per Unit Area (kW/m2)        250.0
     PROPANE Mass Flux (kg/s/m2)   5.396E-03

   2 OPEN
     Passive Vent to Atmosphere

   3 MIRROR
     Symmetry Plane

   4 INTERPOLATED

   5 PERIODIC

   6 HVAC

   7 MASSLESS TRACER

   8 DROPLET

   9 MASSLESS TARGET

  10 PERIODIC FLOW ONLY


 Lagrangian Particle Classes


 Cut-off Density and Temperature

    Minimum Temperature:  -259.1 C
    Maximum Temperature:  2726.8 C
    Minimum Density:  1.195E-01 kg/m3
    Maximum Density:  7.677E+01 kg/m3


 Device Information

   1 ID: T air 1
     QUANTITY: TEMPERATURE
     Coordinates (X,Y,Z):    1.000000E+00    2.000000E+00    2.800000E+00
     TEMPORAL STATISTIC: TIME AVERAGE
   2 ID: T air 2
     QUANTITY: TEMPERATURE
     Coordinates (X,Y,Z):    1.500000E+00    3.000000E+00    2.000000E+00
     TEMPORAL STATISTIC: TIME AVERAGE


 Slice File Information, Mesh     1

   1 Nodes:   0  30  20  20   0  30, Quantity: TEMPERATURE
   2 Nodes:   0  30  30  30   0  30, Quantity: TEMPERATURE


 Radiation Model Information

   Number of control angles  104
   Time step increment         3
   Angle increment             5
   Theta band N_phi   Solid angle
     1:        4     0.120
     2:       12     0.114
     3:       16     0.127
     4:       20     0.120
     5:       20     0.120
     6:       16     0.127
     7:       12     0.114
     8:        4     0.120
   Using gray gas absorption.
   Mean beam length  1.000E-01 m
 
 

 Run Time Diagnostics

       Time Step       1   June 12, 2023  11:07:21
       Step Size:    0.922E-01 s, Total Time:      0.092 s
       Pressure Iterations: 1
       Maximum Velocity Error:  0.15E-02 on Mesh 1 at (20,20,5)
       Maximum Pressure Error:  0.25E-05 on Mesh 1 at (17,15,4)
       ---------------------------------------------------------------
       Max CFL number:  0.23E-01 at (22,11,21)
       Max divergence:  0.20E-05 at (20,33,2)
       Min divergence: -0.14E-02 at (14,26,2)
       Max VN number:   0.26E-01 at (10,21,4)
 
       Time Step       2   June 12, 2023  11:07:21
       Step Size:    0.922E-01 s, Total Time:       0.18 s
       Pressure Iterations: 1
       Maximum Velocity Error:  0.21E-01 on Mesh 1 at (30,20,1)
       Maximum Pressure Error:  0.58E-01 on Mesh 1 at (11,15,2)
       ---------------------------------------------------------------
       Max CFL number:  0.23E-01 at (22,11,21)
       Max divergence:  0.60E+00 at (10,20,4)
       Min divergence: -0.21E-05 at (19,30,29)
       Max VN number:   0.23E-01 at (30,22,4)
       Total Heat Release Rate:             48.919 kW
 
       Time Step       3   June 12, 2023  11:07:21
       Step Size:    0.922E-01 s, Total Time:       0.28 s
       Pressure Iterations: 2
       Maximum Velocity Error:  0.47E-01 on Mesh 1 at (30,20,1)
       Maximum Pressure Error:  0.87E+01 on Mesh 1 at (21,25,1)
       ---------------------------------------------------------------
       Max CFL number:  0.10E+00 at (12,26,2)
       Max divergence:  0.37E+01 at (21,25,5)
       Min divergence: -0.20E-05 at (19,30,29)
       Max VN number:   0.28E-01 at (25,1,27)
       Total Heat Release Rate:            118.406 kW
       Radiation Loss to Boundaries:        -3.644 kW
 
       Time Step       4   June 12, 2023  11:07:21
       Step Size:    0.922E-01 s, Total Time:       0.37 s
       Pressure Iterations: 4
       Maximum Velocity Error:  0.45E-01 on Mesh 1 at (30,11,1)
       Maximum Pressure Error:  0.76E+02 on Mesh 1 at (11,15,1)
       ---------------------------------------------------------------
       Max CFL number:  0.54E+00 at (21,25,5)
       Max divergence:  0.76E+01 at (10,21,1)
       Min divergence: -0.19E-05 at (19,30,29)
       Max VN number:   0.85E-01 at (21,25,5)
       Total Heat Release Rate:            208.567 kW
       Radiation Loss to Boundaries:       -12.010 kW
 
       Time Step       5   June 12, 2023  11:07:21
       Step Size:    0.922E-01 s, Total Time:       0.46 s
       Pressure Iterations: 4
       Maximum Velocity Error:  0.34E-01 on Mesh 1 at (11,25,1)
       Maximum Pressure Error:  0.10E+04 on Mesh 1 at (10,21,1)
       ---------------------------------------------------------------
       Max CFL number:  0.82E+00 at (10,20,1)
       Max divergence:  0.37E+01 at (21,18,1)
       Min divergence: -0.24E-05 at (30,22,21)
       Max VN number:   0.40E+00 at (10,21,1)
       Total Heat Release Rate:            240.990 kW
       Radiation Loss to Boundaries:       -38.968 kW
 
       Time Step       6   June 12, 2023  11:07:21
       Step Size:    0.922E-01 s, Total Time:       0.55 s
       Pressure Iterations: 4
       Maximum Velocity Error:  0.29E-01 on Mesh 1 at (20,15,1)
       Maximum Pressure Error:  0.36E+03 on Mesh 1 at (21,21,1)
       ---------------------------------------------------------------
       Max CFL number:  0.94E+00 at (21,25,4)
       Max divergence:  0.45E+01 at (10,22,2)
       Min divergence: -0.77E-01 at (21,19,5)
       Max VN number:   0.21E+00 at (11,14,1)
       Total Heat Release Rate:            287.230 kW
       Radiation Loss to Boundaries:       -85.007 kW
 
       Time Step       7   June 12, 2023  11:07:21
       Step Size:    0.597E-01 s, Total Time:       0.61 s
       Pressure Iterations: 3
       Maximum Velocity Error:  0.43E-01 on Mesh 1 at (11,25,1)
       Maximum Pressure Error:  0.21E+03 on Mesh 1 at (21,20,1)
       ---------------------------------------------------------------
       Max CFL number:  0.81E+00 at (20,15,4)
       Max divergence:  0.37E+01 at (14,26,2)
       Min divergence: -0.79E+00 at (10,23,3)
       Max VN number:   0.17E+00 at (21,25,6)
       Total Heat Release Rate:            353.140 kW
       Radiation Loss to Boundaries:      -131.314 kW
 
       Time Step       8   June 12, 2023  11:07:22
       Step Size:    0.597E-01 s, Total Time:       0.67 s
       Pressure Iterations: 3
       Maximum Velocity Error:  0.47E-01 on Mesh 1 at (10,25,1)
       Maximum Pressure Error:  0.29E+03 on Mesh 1 at (14,26,2)
       ---------------------------------------------------------------
       Max CFL number:  0.10E+01 at (20,26,5)
       Max divergence:  0.59E+01 at (10,25,3)
       Min divergence: -0.81E+00 at (21,20,4)
       Max VN number:   0.28E+00 at (20,15,6)
       Total Heat Release Rate:            368.701 kW
       Radiation Loss to Boundaries:      -172.668 kW
 
       Time Step       9   June 12, 2023  11:07:22
       Step Size:    0.412E-01 s, Total Time:       0.71 s
       Pressure Iterations: 3
       Maximum Velocity Error:  0.32E-01 on Mesh 1 at (10,25,2)
       Maximum Pressure Error:  0.38E+03 on Mesh 1 at (15,26,1)
       ---------------------------------------------------------------
       Max CFL number:  0.88E+00 at (10,25,3)
       Max divergence:  0.39E+01 at (11,26,4)
       Min divergence: -0.59E+00 at (20,26,4)
       Max VN number:   0.28E+00 at (20,15,6)
       Total Heat Release Rate:            420.459 kW
       Radiation Loss to Boundaries:      -167.086 kW
 
       Time Step      10   June 12, 2023  11:07:22
       Step Size:    0.412E-01 s, Total Time:       0.75 s
       Pressure Iterations: 3
       Maximum Velocity Error:  0.25E-01 on Mesh 1 at (20,21,5)
       Maximum Pressure Error:  0.25E+03 on Mesh 1 at (11,26,4)
       ---------------------------------------------------------------
       Max CFL number:  0.98E+00 at (20,26,6)
       Max divergence:  0.34E+01 at (20,15,4)
       Min divergence: -0.77E+00 at (20,15,7)
       Max VN number:   0.40E+00 at (20,26,6)
       Total Heat Release Rate:            433.321 kW
       Radiation Loss to Boundaries:      -183.035 kW
 
       Time Step      20   June 12, 2023  11:07:23
       Step Size:    0.215E-01 s, Total Time:       1.03 s
       Pressure Iterations: 1
       Maximum Velocity Error:  0.36E-01 on Mesh 1 at (11,20,5)
       Maximum Pressure Error:  0.15E+03 on Mesh 1 at (18,26,10)
       ---------------------------------------------------------------
       Max CFL number:  0.88E+00 at (19,26,9)
       Max divergence:  0.37E+01 at (10,18,6)
       Min divergence: -0.14E+01 at (20,15,11)
       Max VN number:   0.29E+00 at (10,24,8)
       Total Heat Release Rate:            613.505 kW
       Radiation Loss to Boundaries:      -204.396 kW
 
       Time Step      30   June 12, 2023  11:07:24
       Step Size:    0.189E-01 s, Total Time:       1.23 s
       Pressure Iterations: 1
       Maximum Velocity Error:  0.22E-01 on Mesh 1 at (10,23,5)
       Maximum Pressure Error:  0.21E+03 on Mesh 1 at (16,26,13)
       ---------------------------------------------------------------
       Max CFL number:  0.89E+00 at (16,26,9)
       Max divergence:  0.47E+01 at (10,18,6)
       Min divergence: -0.26E+01 at (10,23,13)
       Max VN number:   0.30E+00 at (20,25,10)
       Total Heat Release Rate:            612.732 kW
       Radiation Loss to Boundaries:      -143.597 kW
 
       Time Step      40   June 12, 2023  11:07:26
       Step Size:    0.167E-01 s, Total Time:       1.41 s
       Pressure Iterations: 1
       Maximum Velocity Error:  0.23E-01 on Mesh 1 at (19,22,5)
       Maximum Pressure Error:  0.22E+03 on Mesh 1 at (16,15,17)
       ---------------------------------------------------------------
       Max CFL number:  0.95E+00 at (15,26,13)
       Max divergence:  0.49E+01 at (18,26,6)
       Min divergence: -0.21E+01 at (15,15,17)
       Max VN number:   0.29E+00 at (15,15,16)
       Total Heat Release Rate:            642.113 kW
       Radiation Loss to Boundaries:      -148.172 kW
 
       Time Step      50   June 12, 2023  11:07:27
       Step Size:    0.149E-01 s, Total Time:       1.56 s
       Pressure Iterations: 1
       Maximum Velocity Error:  0.47E-01 on Mesh 1 at (17,20,5)
       Maximum Pressure Error:  0.22E+03 on Mesh 1 at (16,26,21)
       ---------------------------------------------------------------
       Max CFL number:  0.89E+00 at (16,27,19)
       Max divergence:  0.43E+01 at (10,18,6)
       Min divergence: -0.19E+01 at (15,22,10)
       Max VN number:   0.26E+00 at (10,21,21)
       Total Heat Release Rate:            665.246 kW
       Radiation Loss to Boundaries:      -165.291 kW
 
       Time Step      60   June 12, 2023  11:07:28
       Step Size:    0.149E-01 s, Total Time:       1.71 s
       Pressure Iterations: 2
       Maximum Velocity Error:  0.12E-01 on Mesh 1 at (17,24,5)
       Maximum Pressure Error:  0.24E+03 on Mesh 1 at (16,15,25)
       ---------------------------------------------------------------
       Max CFL number:  0.92E+00 at (9,20,22)
       Max divergence:  0.50E+01 at (18,26,6)
       Min divergence: -0.22E+01 at (15,22,12)
       Max VN number:   0.30E+00 at (12,17,14)
       Total Heat Release Rate:            687.036 kW
       Radiation Loss to Boundaries:      -179.628 kW
 
       Time Step      70   June 12, 2023  11:07:30
       Step Size:    0.130E-01 s, Total Time:       1.85 s
       Pressure Iterations: 1
       Maximum Velocity Error:  0.12E-01 on Mesh 1 at (19,22,5)
       Maximum Pressure Error:  0.15E+03 on Mesh 1 at (17,19,13)
       ---------------------------------------------------------------
       Max CFL number:  0.88E+00 at (12,18,16)
       Max divergence:  0.49E+01 at (12,19,6)
       Min divergence: -0.21E+01 at (12,17,18)
       Max VN number:   0.31E+00 at (12,18,16)
       Total Heat Release Rate:            717.525 kW
       Radiation Loss to Boundaries:      -190.979 kW
 
       Time Step      80   June 12, 2023  11:07:32
       Step Size:    0.143E-01 s, Total Time:       1.99 s
       Pressure Iterations: 2
       Maximum Velocity Error:  0.13E-01 on Mesh 1 at (20,24,4)
       Maximum Pressure Error:  0.27E+03 on Mesh 1 at (15,13,30)
       ---------------------------------------------------------------
       Max CFL number:  0.90E+00 at (14,14,30)
       Max divergence:  0.48E+01 at (21,19,6)
       Min divergence: -0.27E+01 at (12,18,14)
       Max VN number:   0.45E+00 at (11,22,30)
       Total Heat Release Rate:            710.981 kW
       Radiation Loss to Boundaries:      -190.381 kW
 
       Time Step      90   June 12, 2023  11:07:34
       Step Size:    0.143E-01 s, Total Time:       2.13 s
       Pressure Iterations: 2
       Maximum Velocity Error:  0.11E-01 on Mesh 1 at (14,18,5)
       Maximum Pressure Error:  0.24E+03 on Mesh 1 at (17,19,20)
       ---------------------------------------------------------------
       Max CFL number:  0.94E+00 at (17,18,18)
       Max divergence:  0.55E+01 at (10,18,6)
       Min divergence: -0.24E+01 at (18,23,8)
       Max VN number:   0.62E+00 at (18,25,30)
       Total Heat Release Rate:            712.049 kW
       Radiation Loss to Boundaries:      -186.474 kW
 
       Time Step     100   June 12, 2023  11:07:36
       Step Size:    0.121E-01 s, Total Time:       2.27 s
       Pressure Iterations: 1
       Maximum Velocity Error:  0.15E-01 on Mesh 1 at (12,18,5)
       Maximum Pressure Error:  0.25E+03 on Mesh 1 at (19,19,24)
       ---------------------------------------------------------------
       Max CFL number:  0.91E+00 at (18,20,17)
       Max divergence:  0.53E+01 at (21,17,6)
       Min divergence: -0.25E+01 at (14,19,18)
       Max VN number:   0.61E+00 at (19,17,30)
       Total Heat Release Rate:            715.738 kW
       Radiation Loss to Boundaries:      -180.991 kW
 
       Time Step     200   June 12, 2023  11:07:51
       Step Size:    0.893E-02 s, Total Time:       3.21 s
       Pressure Iterations: 2
       Maximum Velocity Error:  0.23E-01 on Mesh 1 at (30,34,30)
       Maximum Pressure Error:  0.72E+03 on Mesh 1 at (7,22,30)
       ---------------------------------------------------------------
       Max CFL number:  0.93E+00 at (13,21,25)
       Max divergence:  0.63E+01 at (14,26,6)
       Min divergence: -0.27E+01 at (12,21,23)
       Max VN number:   0.68E+00 at (25,3,30)
       Total Heat Release Rate:            769.928 kW
       Radiation Loss to Boundaries:      -194.029 kW
 
       Time Step     300   June 12, 2023  11:08:06
       Step Size:    0.958E-02 s, Total Time:       4.11 s
       Pressure Iterations: 2
       Maximum Velocity Error:  0.15E-01 on Mesh 1 at (20,23,2)
       Maximum Pressure Error:  0.63E+03 on Mesh 1 at (14,19,30)
       ---------------------------------------------------------------
       Max CFL number:  0.87E+00 at (15,20,21)
       Max divergence:  0.65E+01 at (13,17,6)
       Min divergence: -0.23E+01 at (16,18,19)
       Max VN number:   0.70E+00 at (16,2,30)
       Total Heat Release Rate:            738.670 kW
       Radiation Loss to Boundaries:      -188.027 kW
 
       Time Step     400   June 12, 2023  11:08:21
       Step Size:    0.101E-01 s, Total Time:       5.09 s
       Pressure Iterations: 2
       Maximum Velocity Error:  0.31E-01 on Mesh 1 at (30,40,30)
       Maximum Pressure Error:  0.47E+03 on Mesh 1 at (24,22,30)
       ---------------------------------------------------------------
       Max CFL number:  0.86E+00 at (16,22,24)
       Max divergence:  0.64E+01 at (10,16,3)
       Min divergence: -0.22E+01 at (17,22,7)
       Max VN number:   0.68E+00 at (23,2,30)
       Total Heat Release Rate:            742.796 kW
       Radiation Loss to Boundaries:      -189.633 kW
 
       Time Step     500   June 12, 2023  11:08:35
       Step Size:    0.975E-02 s, Total Time:       6.12 s
       Pressure Iterations: 2
       Maximum Velocity Error:  0.38E-01 on Mesh 1 at (30,33,30)
       Maximum Pressure Error:  0.62E+03 on Mesh 1 at (12,15,4)
       ---------------------------------------------------------------
       Max CFL number:  0.89E+00 at (14,19,26)
       Max divergence:  0.63E+01 at (17,15,6)
       Min divergence: -0.23E+01 at (13,20,28)
       Max VN number:   0.53E+00 at (19,2,30)
       Total Heat Release Rate:            731.478 kW
       Radiation Loss to Boundaries:      -187.220 kW
 
       Time Step     600   June 12, 2023  11:08:50
       Step Size:    0.102E-01 s, Total Time:       7.16 s
       Pressure Iterations: 2
       Maximum Velocity Error:  0.21E-01 on Mesh 1 at (20,40,30)
       Maximum Pressure Error:  0.50E+03 on Mesh 1 at (16,27,30)
       ---------------------------------------------------------------
       Max CFL number:  0.86E+00 at (20,29,30)
       Max divergence:  0.63E+01 at (21,23,6)
       Min divergence: -0.18E+01 at (15,17,19)
       Max VN number:   0.63E+00 at (4,37,30)
       Total Heat Release Rate:            742.257 kW
       Radiation Loss to Boundaries:      -192.675 kW
 
       Time Step     700   June 12, 2023  11:09:04
       Step Size:    0.976E-02 s, Total Time:       8.17 s
       Pressure Iterations: 2
       Maximum Velocity Error:  0.17E-01 on Mesh 1 at (10,24,4)
       Maximum Pressure Error:  0.41E+03 on Mesh 1 at (15,22,30)
       ---------------------------------------------------------------
       Max CFL number:  0.82E+00 at (16,21,27)
       Max divergence:  0.66E+01 at (18,15,6)
       Min divergence: -0.20E+01 at (13,20,13)
       Max VN number:   0.73E+00 at (9,6,30)
       Total Heat Release Rate:            753.429 kW
       Radiation Loss to Boundaries:      -199.592 kW
 
       Time Step     800   June 12, 2023  11:09:18
       Step Size:    0.113E-01 s, Total Time:       9.24 s
       Pressure Iterations: 2
       Maximum Velocity Error:  0.42E-01 on Mesh 1 at (7,40,30)
       Maximum Pressure Error:  0.70E+03 on Mesh 1 at (1,33,30)
       ---------------------------------------------------------------
       Max CFL number:  0.86E+00 at (15,21,23)
       Max divergence:  0.68E+01 at (20,15,5)
       Min divergence: -0.18E+01 at (17,18,9)
       Max VN number:   0.58E+00 at (4,40,15)
       Total Heat Release Rate:            741.113 kW
       Radiation Loss to Boundaries:      -198.157 kW
 
       Time Step     900   June 12, 2023  11:09:32
       Step Size:    0.125E-01 s, Total Time:      10.45 s
       Pressure Iterations: 2
       Maximum Velocity Error:  0.18E-01 on Mesh 1 at (18,20,5)
       Maximum Pressure Error:  0.36E+03 on Mesh 1 at (10,36,30)
       ---------------------------------------------------------------
       Max CFL number:  0.97E+00 at (10,34,30)
       Max divergence:  0.53E+01 at (10,24,1)
       Min divergence: -0.15E+01 at (17,18,8)
       Max VN number:   0.72E+00 at (9,40,3)
       Total Heat Release Rate:            784.512 kW
       Radiation Loss to Boundaries:      -221.316 kW
 
       Time Step    1000   June 12, 2023  11:09:47
       Step Size:    0.126E-01 s, Total Time:      11.64 s
       Pressure Iterations: 2
       Maximum Velocity Error:  0.27E-01 on Mesh 1 at (20,21,5)
       Maximum Pressure Error:  0.34E+03 on Mesh 1 at (21,21,5)
       ---------------------------------------------------------------
       Max CFL number:  0.89E+00 at (18,17,24)
       Max divergence:  0.68E+01 at (18,25,6)
       Min divergence: -0.37E+01 at (19,20,6)
       Max VN number:   0.75E+00 at (25,39,30)
       Total Heat Release Rate:            731.736 kW
       Radiation Loss to Boundaries:      -213.185 kW
 
       Time Step    1100   June 12, 2023  11:10:01
       Step Size:    0.124E-01 s, Total Time:      12.84 s
       Pressure Iterations: 2
       Maximum Velocity Error:  0.25E-01 on Mesh 1 at (19,40,30)
       Maximum Pressure Error:  0.28E+03 on Mesh 1 at (7,31,30)
       ---------------------------------------------------------------
       Max CFL number:  0.81E+00 at (7,33,30)
       Max divergence:  0.67E+01 at (12,15,5)
       Min divergence: -0.19E+01 at (21,22,8)
       Max VN number:   0.49E+00 at (30,39,7)
       Total Heat Release Rate:            726.054 kW
       Radiation Loss to Boundaries:      -213.774 kW
 
       Time Step    1200   June 12, 2023  11:10:15
       Step Size:    0.139E-01 s, Total Time:      14.09 s
       Pressure Iterations: 2
       Maximum Velocity Error:  0.15E-01 on Mesh 1 at (30,40,21)
       Maximum Pressure Error:  0.33E+03 on Mesh 1 at (20,21,30)
       ---------------------------------------------------------------
       Max CFL number:  0.89E+00 at (15,24,25)
       Max divergence:  0.66E+01 at (10,25,4)
       Min divergence: -0.18E+01 at (13,22,6)
       Max VN number:   0.61E+00 at (30,29,8)
       Total Heat Release Rate:            753.412 kW
       Radiation Loss to Boundaries:      -225.020 kW
 
       Time Step    1300   June 12, 2023  11:10:28
       Step Size:    0.129E-01 s, Total Time:      15.38 s
       Pressure Iterations: 2
       Maximum Velocity Error:  0.27E-01 on Mesh 1 at (30,30,30)
       Maximum Pressure Error:  0.56E+03 on Mesh 1 at (9,20,30)
       ---------------------------------------------------------------
       Max CFL number:  0.88E+00 at (10,16,17)
       Max divergence:  0.72E+01 at (21,19,2)
       Min divergence: -0.21E+01 at (10,16,17)
       Max VN number:   0.71E+00 at (10,40,5)
       Total Heat Release Rate:            752.842 kW
       Radiation Loss to Boundaries:      -229.939 kW
 
       Time Step    1400   June 12, 2023  11:10:43
       Step Size:    0.151E-01 s, Total Time:      16.78 s
       Pressure Iterations: 2
       Maximum Velocity Error:  0.18E-01 on Mesh 1 at (8,40,21)
       Maximum Pressure Error:  0.37E+03 on Mesh 1 at (13,40,13)
       ---------------------------------------------------------------
       Max CFL number:  0.85E+00 at (11,21,23)
       Max divergence:  0.63E+01 at (21,25,5)
       Min divergence: -0.19E+01 at (13,19,6)
       Max VN number:   0.79E+00 at (13,5,30)
       Total Heat Release Rate:            715.878 kW
       Radiation Loss to Boundaries:      -227.922 kW
 
       Time Step    1500   June 12, 2023  11:10:57
       Step Size:    0.140E-01 s, Total Time:      18.12 s
       Pressure Iterations: 3
       Maximum Velocity Error:  0.16E-01 on Mesh 1 at (24,40,30)
       Maximum Pressure Error:  0.77E+03 on Mesh 1 at (17,21,6)
       ---------------------------------------------------------------
       Max CFL number:  0.89E+00 at (15,23,20)
       Max divergence:  0.64E+01 at (10,24,2)
       Min divergence: -0.19E+01 at (9,23,15)
       Max VN number:   0.63E+00 at (21,40,7)
       Total Heat Release Rate:            757.302 kW
       Radiation Loss to Boundaries:      -245.926 kW
 
       Time Step    1600   June 12, 2023  11:11:10
       Step Size:    0.132E-01 s, Total Time:      19.42 s
       Pressure Iterations: 2
       Maximum Velocity Error:  0.34E-01 on Mesh 1 at (16,23,5)
       Maximum Pressure Error:  0.44E+03 on Mesh 1 at (12,26,1)
       ---------------------------------------------------------------
       Max CFL number:  0.94E+00 at (12,21,18)
       Max divergence:  0.79E+01 at (21,16,2)
       Min divergence: -0.18E+01 at (18,22,14)
       Max VN number:   0.68E+00 at (8,40,3)
       Total Heat Release Rate:            757.807 kW
       Radiation Loss to Boundaries:      -244.265 kW
 
       Time Step    1700   June 12, 2023  11:11:24
       Step Size:    0.144E-01 s, Total Time:      20.74 s
       Pressure Iterations: 2
       Maximum Velocity Error:  0.21E-01 on Mesh 1 at (4,40,19)
       Maximum Pressure Error:  0.28E+03 on Mesh 1 at (1,10,30)
       ---------------------------------------------------------------
       Max CFL number:  0.82E+00 at (19,17,17)
       Max divergence:  0.91E+01 at (10,23,1)
       Min divergence: -0.22E+01 at (13,19,7)
       Max VN number:   0.73E+00 at (1,39,17)
       Total Heat Release Rate:            737.982 kW
       Radiation Loss to Boundaries:      -251.155 kW
 
       Time Step    1800   June 12, 2023  11:11:38
       Step Size:    0.139E-01 s, Total Time:      22.21 s
       Pressure Iterations: 2
       Maximum Velocity Error:  0.15E-01 on Mesh 1 at (30,27,30)
       Maximum Pressure Error:  0.42E+03 on Mesh 1 at (21,17,1)
       ---------------------------------------------------------------
       Max CFL number:  0.92E+00 at (20,21,15)
       Max divergence:  0.77E+01 at (10,22,2)
       Min divergence: -0.22E+01 at (10,24,10)
       Max VN number:   0.60E+00 at (9,40,2)
       Total Heat Release Rate:            766.334 kW
       Radiation Loss to Boundaries:      -252.976 kW
 
       Time Step    1900   June 12, 2023  11:11:52
       Step Size:    0.134E-01 s, Total Time:      23.58 s
       Pressure Iterations: 2
       Maximum Velocity Error:  0.17E-01 on Mesh 1 at (22,40,1)
       Maximum Pressure Error:  0.38E+03 on Mesh 1 at (17,40,20)
       ---------------------------------------------------------------
       Max CFL number:  0.86E+00 at (16,26,30)
       Max divergence:  0.72E+01 at (16,25,6)
       Min divergence: -0.24E+01 at (12,19,7)
       Max VN number:   0.56E+00 at (30,24,8)
       Total Heat Release Rate:            733.954 kW
       Radiation Loss to Boundaries:      -253.285 kW
 
       Time Step    2000   June 12, 2023  11:12:05
       Step Size:    0.149E-01 s, Total Time:      24.94 s
       Pressure Iterations: 2
       Maximum Velocity Error:  0.25E-01 on Mesh 1 at (30,40,19)
       Maximum Pressure Error:  0.32E+03 on Mesh 1 at (21,22,1)
       ---------------------------------------------------------------
       Max CFL number:  0.87E+00 at (30,30,19)
       Max divergence:  0.69E+01 at (12,15,2)
       Min divergence: -0.20E+01 at (19,16,12)
       Max VN number:   0.78E+00 at (14,14,1)
       Total Heat Release Rate:            748.148 kW
       Radiation Loss to Boundaries:      -261.314 kW
 
       Time Step    2100   June 12, 2023  11:12:19
       Step Size:    0.148E-01 s, Total Time:      26.28 s
       Pressure Iterations: 2
       Maximum Velocity Error:  0.37E-01 on Mesh 1 at (30,36,30)
       Maximum Pressure Error:  0.25E+03 on Mesh 1 at (21,16,1)
       ---------------------------------------------------------------
       Max CFL number:  0.88E+00 at (20,17,13)
       Max divergence:  0.64E+01 at (21,20,5)
       Min divergence: -0.20E+01 at (19,17,6)
       Max VN number:   0.91E+00 at (21,40,4)
       Total Heat Release Rate:            715.704 kW
       Radiation Loss to Boundaries:      -258.050 kW
 
       Time Step    2200   June 12, 2023  11:12:33
       Step Size:    0.141E-01 s, Total Time:      27.67 s
       Pressure Iterations: 2
       Maximum Velocity Error:  0.34E-01 on Mesh 1 at (20,24,4)
       Maximum Pressure Error:  0.55E+03 on Mesh 1 at (21,24,4)
       ---------------------------------------------------------------
       Max CFL number:  0.89E+00 at (20,15,13)
       Max divergence:  0.92E+01 at (21,24,4)
       Min divergence: -0.23E+01 at (10,24,9)
       Max VN number:   0.65E+00 at (10,40,2)
       Total Heat Release Rate:            778.895 kW
       Radiation Loss to Boundaries:      -264.604 kW
 
       Time Step    2300   June 12, 2023  11:12:47
       Step Size:    0.121E-01 s, Total Time:      29.03 s
       Pressure Iterations: 2
       Maximum Velocity Error:  0.20E-01 on Mesh 1 at (30,22,30)
       Maximum Pressure Error:  0.45E+03 on Mesh 1 at (20,40,20)
       ---------------------------------------------------------------
       Max CFL number:  0.86E+00 at (20,20,25)
       Max divergence:  0.73E+01 at (16,26,5)
       Min divergence: -0.20E+01 at (17,23,13)
       Max VN number:   0.58E+00 at (22,40,4)
       Total Heat Release Rate:            743.588 kW
       Radiation Loss to Boundaries:      -259.954 kW
 
       Time Step    2400   June 12, 2023  11:13:01
       Step Size:    0.146E-01 s, Total Time:      30.48 s
       Pressure Iterations: 2
       Maximum Velocity Error:  0.40E-01 on Mesh 1 at (13,15,2)
       Maximum Pressure Error:  0.69E+03 on Mesh 1 at (13,15,2)
       ---------------------------------------------------------------
       Max CFL number:  0.90E+00 at (18,22,16)
       Max divergence:  0.65E+01 at (13,15,2)
       Min divergence: -0.17E+01 at (14,20,6)
       Max VN number:   0.68E+00 at (9,40,3)
       Total Heat Release Rate:            751.626 kW
       Radiation Loss to Boundaries:      -263.527 kW
 
       Time Step    2500   June 12, 2023  11:13:15
       Step Size:    0.115E-01 s, Total Time:      31.82 s
       Pressure Iterations: 2
       Maximum Velocity Error:  0.14E-01 on Mesh 1 at (30,40,13)
       Maximum Pressure Error:  0.21E+03 on Mesh 1 at (20,40,12)
       ---------------------------------------------------------------
       Max CFL number:  0.60E+00 at (19,21,25)
       Max divergence:  0.60E+01 at (20,18,6)
       Min divergence: -0.16E+01 at (15,19,6)
       Max VN number:   0.86E+00 at (10,40,2)
       Total Heat Release Rate:            725.387 kW
       Radiation Loss to Boundaries:      -258.941 kW
 
       Time Step    2600   June 12, 2023  11:13:29
       Step Size:    0.156E-01 s, Total Time:      33.33 s
       Pressure Iterations: 2
       Maximum Velocity Error:  0.41E-01 on Mesh 1 at (30,40,19)
       Maximum Pressure Error:  0.21E+03 on Mesh 1 at (17,20,30)
       ---------------------------------------------------------------
       Max CFL number:  0.92E+00 at (9,22,18)
       Max divergence:  0.93E+01 at (13,25,6)
       Min divergence: -0.18E+01 at (9,23,9)
       Max VN number:   0.81E+00 at (17,38,30)
       Total Heat Release Rate:            779.040 kW
       Radiation Loss to Boundaries:      -272.109 kW
 
       Time Step    2700   June 12, 2023  11:13:44
       Step Size:    0.162E-01 s, Total Time:      34.73 s
       Pressure Iterations: 2
       Maximum Velocity Error:  0.36E-01 on Mesh 1 at (9,40,9)
       Maximum Pressure Error:  0.20E+03 on Mesh 1 at (21,19,1)
       ---------------------------------------------------------------
       Max CFL number:  0.86E+00 at (19,15,12)
       Max divergence:  0.71E+01 at (10,24,1)
       Min divergence: -0.20E+01 at (18,18,6)
       Max VN number:   0.68E+00 at (30,23,2)
       Total Heat Release Rate:            739.923 kW
       Radiation Loss to Boundaries:      -268.328 kW
 
       Time Step    2800   June 12, 2023  11:13:58
       Step Size:    0.120E-01 s, Total Time:      36.13 s
       Pressure Iterations: 2
       Maximum Velocity Error:  0.18E-01 on Mesh 1 at (8,40,2)
       Maximum Pressure Error:  0.18E+03 on Mesh 1 at (1,18,30)
       ---------------------------------------------------------------
       Max CFL number:  0.87E+00 at (10,22,27)
       Max divergence:  0.67E+01 at (12,26,5)
       Min divergence: -0.16E+01 at (10,23,12)
       Max VN number:   0.84E+00 at (10,40,3)
       Total Heat Release Rate:            746.655 kW
       Radiation Loss to Boundaries:      -267.279 kW
 
       Time Step    2900   June 12, 2023  11:14:12
       Step Size:    0.157E-01 s, Total Time:      37.55 s
       Pressure Iterations: 2
       Maximum Velocity Error:  0.30E-01 on Mesh 1 at (30,35,29)
       Maximum Pressure Error:  0.21E+03 on Mesh 1 at (10,23,4)
       ---------------------------------------------------------------
       Max CFL number:  0.92E+00 at (10,23,7)
       Max divergence:  0.68E+01 at (19,15,3)
       Min divergence: -0.24E+01 at (17,19,6)
       Max VN number:   0.89E+00 at (11,14,1)
       Total Heat Release Rate:            721.945 kW
       Radiation Loss to Boundaries:      -259.290 kW
 
       Time Step    3000   June 12, 2023  11:14:25
       Step Size:    0.156E-01 s, Total Time:      39.04 s
       Pressure Iterations: 2
       Maximum Velocity Error:  0.17E-01 on Mesh 1 at (13,40,25)
       Maximum Pressure Error:  0.19E+03 on Mesh 1 at (1,35,30)
       ---------------------------------------------------------------
       Max CFL number:  0.95E+00 at (20,14,16)
       Max divergence:  0.58E+01 at (17,23,6)
       Min divergence: -0.22E+01 at (9,24,12)
       Max VN number:   0.71E+00 at (17,21,6)
       Total Heat Release Rate:            742.575 kW
       Radiation Loss to Boundaries:      -266.253 kW
 
       Time Step    3100   June 12, 2023  11:14:40
       Step Size:    0.132E-01 s, Total Time:      40.51 s
       Pressure Iterations: 2
       Maximum Velocity Error:  0.21E-01 on Mesh 1 at (10,22,5)
       Maximum Pressure Error:  0.31E+03 on Mesh 1 at (10,22,5)
       ---------------------------------------------------------------
       Max CFL number:  0.78E+00 at (7,25,24)
       Max divergence:  0.59E+01 at (14,26,6)
       Min divergence: -0.21E+01 at (10,14,8)
       Max VN number:   0.76E+00 at (10,40,5)
       Total Heat Release Rate:            732.062 kW
       Radiation Loss to Boundaries:      -262.772 kW
 
       Time Step    3200   June 12, 2023  11:14:55
       Step Size:    0.155E-01 s, Total Time:      42.06 s
       Pressure Iterations: 2
       Maximum Velocity Error:  0.20E-01 on Mesh 1 at (30,40,15)
       Maximum Pressure Error:  0.32E+03 on Mesh 1 at (21,16,1)
       ---------------------------------------------------------------
       Max CFL number:  0.91E+00 at (15,23,23)
       Max divergence:  0.58E+01 at (17,17,6)
       Min divergence: -0.20E+01 at (15,23,6)
       Max VN number:   0.68E+00 at (10,40,5)
       Total Heat Release Rate:            737.200 kW
       Radiation Loss to Boundaries:      -263.235 kW
 
       Time Step    3300   June 12, 2023  11:15:09
       Step Size:    0.164E-01 s, Total Time:      43.51 s
       Pressure Iterations: 2
       Maximum Velocity Error:  0.30E-01 on Mesh 1 at (20,18,5)
       Maximum Pressure Error:  0.42E+03 on Mesh 1 at (21,15,1)
       ---------------------------------------------------------------
       Max CFL number:  0.99E+00 at (30,29,19)
       Max divergence:  0.70E+01 at (15,25,6)
       Min divergence: -0.23E+01 at (16,20,6)
       Max VN number:   0.61E+00 at (8,40,7)
       Total Heat Release Rate:            725.440 kW
       Radiation Loss to Boundaries:      -265.069 kW
 
       Time Step    3400   June 12, 2023  11:15:23
       Step Size:    0.137E-01 s, Total Time:      45.03 s
       Pressure Iterations: 2
       Maximum Velocity Error:  0.12E-01 on Mesh 1 at (16,40,30)
       Maximum Pressure Error:  0.41E+03 on Mesh 1 at (16,40,20)
       ---------------------------------------------------------------
       Max CFL number:  0.89E+00 at (22,21,15)
       Max divergence:  0.73E+01 at (10,23,1)
       Min divergence: -0.20E+01 at (10,24,9)
       Max VN number:   0.61E+00 at (10,40,5)
       Total Heat Release Rate:            784.537 kW
       Radiation Loss to Boundaries:      -273.314 kW
 
       Time Step    3500   June 12, 2023  11:15:37
       Step Size:    0.145E-01 s, Total Time:      46.43 s
       Pressure Iterations: 2
       Maximum Velocity Error:  0.26E-01 on Mesh 1 at (30,29,30)
       Maximum Pressure Error:  0.40E+03 on Mesh 1 at (10,20,1)
       ---------------------------------------------------------------
       Max CFL number:  0.93E+00 at (13,24,25)
       Max divergence:  0.65E+01 at (21,20,5)
       Min divergence: -0.20E+01 at (10,23,10)
       Max VN number:   0.62E+00 at (13,21,6)
       Total Heat Release Rate:            755.891 kW
       Radiation Loss to Boundaries:      -273.577 kW
 
       Time Step    3600   June 12, 2023  11:15:50
       Step Size:    0.152E-01 s, Total Time:      47.89 s
       Pressure Iterations: 2
       Maximum Velocity Error:  0.37E-01 on Mesh 1 at (15,22,5)
       Maximum Pressure Error:  0.52E+03 on Mesh 1 at (15,22,6)
       ---------------------------------------------------------------
       Max CFL number:  0.94E+00 at (12,22,20)
       Max divergence:  0.69E+01 at (10,24,4)
       Min divergence: -0.18E+01 at (10,23,8)
       Max VN number:   0.97E+00 at (20,11,1)
       Total Heat Release Rate:            740.750 kW
       Radiation Loss to Boundaries:      -273.003 kW
 
       Time Step    3700   June 12, 2023  11:16:04
       Step Size:    0.139E-01 s, Total Time:      49.36 s
       Pressure Iterations: 2
       Maximum Velocity Error:  0.19E-01 on Mesh 1 at (30,40,19)
       Maximum Pressure Error:  0.21E+03 on Mesh 1 at (12,27,30)
       ---------------------------------------------------------------
       Max CFL number:  0.83E+00 at (7,20,20)
       Max divergence:  0.74E+01 at (11,25,6)
       Min divergence: -0.21E+01 at (10,23,12)
       Max VN number:   0.79E+00 at (9,40,4)
       Total Heat Release Rate:            732.578 kW
       Radiation Loss to Boundaries:      -261.753 kW
 
       Time Step    3800   June 12, 2023  11:16:18
       Step Size:    0.136E-01 s, Total Time:      50.78 s
       Pressure Iterations: 2
       Maximum Velocity Error:  0.21E-01 on Mesh 1 at (30,40,27)
       Maximum Pressure Error:  0.42E+03 on Mesh 1 at (10,17,1)
       ---------------------------------------------------------------
       Max CFL number:  0.79E+00 at (19,40,19)
       Max divergence:  0.75E+01 at (11,26,5)
       Min divergence: -0.21E+01 at (21,22,10)
       Max VN number:   0.87E+00 at (21,40,5)
       Total Heat Release Rate:            761.234 kW
       Radiation Loss to Boundaries:      -268.496 kW
 
       Time Step    3900   June 12, 2023  11:16:36
       Step Size:    0.145E-01 s, Total Time:      52.22 s
       Pressure Iterations: 2
       Maximum Velocity Error:  0.32E-01 on Mesh 1 at (20,19,1)
       Maximum Pressure Error:  0.89E+03 on Mesh 1 at (21,19,1)
       ---------------------------------------------------------------
       Max CFL number:  0.91E+00 at (21,19,6)
       Max divergence:  0.66E+01 at (10,15,1)
       Min divergence: -0.19E+01 at (11,16,8)
       Max VN number:   0.74E+00 at (20,12,1)
       Total Heat Release Rate:            734.559 kW
       Radiation Loss to Boundaries:      -256.488 kW
 
       Time Step    4000   June 12, 2023  11:16:52
       Step Size:    0.132E-01 s, Total Time:      53.60 s
       Pressure Iterations: 2
       Maximum Velocity Error:  0.19E-01 on Mesh 1 at (4,40,30)
       Maximum Pressure Error:  0.22E+03 on Mesh 1 at (12,26,1)
       ---------------------------------------------------------------
       Max CFL number:  0.86E+00 at (7,25,18)
       Max divergence:  0.89E+01 at (10,24,1)
       Min divergence: -0.20E+01 at (12,15,11)
       Max VN number:   0.79E+00 at (10,40,3)
       Total Heat Release Rate:            752.350 kW
       Radiation Loss to Boundaries:      -264.759 kW
 
       Time Step    4100   June 12, 2023  11:17:08
       Step Size:    0.143E-01 s, Total Time:      54.99 s
       Pressure Iterations: 2
       Maximum Velocity Error:  0.22E-01 on Mesh 1 at (30,27,30)
       Maximum Pressure Error:  0.45E+03 on Mesh 1 at (13,40,10)
       ---------------------------------------------------------------
       Max CFL number:  0.96E+00 at (20,40,18)
       Max divergence:  0.59E+01 at (10,22,6)
       Min divergence: -0.24E+01 at (18,15,14)
       Max VN number:   0.89E+00 at (10,40,6)
       Total Heat Release Rate:            763.430 kW
       Radiation Loss to Boundaries:      -265.186 kW
 
       Time Step    4200   June 12, 2023  11:17:23
       Step Size:    0.147E-01 s, Total Time:      56.38 s
       Pressure Iterations: 2
       Maximum Velocity Error:  0.32E-01 on Mesh 1 at (10,19,2)
       Maximum Pressure Error:  0.11E+04 on Mesh 1 at (10,20,1)
       ---------------------------------------------------------------
       Max CFL number:  0.89E+00 at (10,28,24)
       Max divergence:  0.57E+01 at (10,18,3)
       Min divergence: -0.17E+01 at (14,23,10)
       Max VN number:   0.76E+00 at (17,13,1)
       Total Heat Release Rate:            741.014 kW
       Radiation Loss to Boundaries:      -261.494 kW
 
       Time Step    4300   June 12, 2023  11:17:38
       Step Size:    0.154E-01 s, Total Time:      57.78 s
       Pressure Iterations: 2
       Maximum Velocity Error:  0.18E-01 on Mesh 1 at (9,40,30)
       Maximum Pressure Error:  0.35E+03 on Mesh 1 at (21,17,1)
       ---------------------------------------------------------------
       Max CFL number:  0.85E+00 at (13,25,20)
       Max divergence:  0.77E+01 at (21,21,1)
       Min divergence: -0.16E+01 at (11,23,10)
       Max VN number:   0.67E+00 at (2,2,30)
       Total Heat Release Rate:            734.794 kW
       Radiation Loss to Boundaries:      -265.606 kW
 
       Time Step    4400   June 12, 2023  11:17:52
       Step Size:    0.139E-01 s, Total Time:      59.21 s
       Pressure Iterations: 2
       Maximum Velocity Error:  0.23E-01 on Mesh 1 at (30,9,29)
       Maximum Pressure Error:  0.44E+03 on Mesh 1 at (21,21,1)
       ---------------------------------------------------------------
       Max CFL number:  0.80E+00 at (18,40,19)
       Max divergence:  0.63E+01 at (14,16,6)
       Min divergence: -0.17E+01 at (16,22,7)
       Max VN number:   0.90E+00 at (10,40,3)
       Total Heat Release Rate:            734.507 kW
       Radiation Loss to Boundaries:      -260.560 kW
 
       Time Step    4454   June 12, 2023  11:18:00
       Step Size:    0.599E-02 s, Total Time:      60.00 s
       Pressure Iterations: 1
       Maximum Velocity Error:  0.17E-01 on Mesh 1 at (21,40,5)
       Maximum Pressure Error:  0.15E+04 on Mesh 1 at (10,21,1)
       ---------------------------------------------------------------
       Max CFL number:  0.38E+00 at (10,23,15)
       Max divergence:  0.60E+01 at (10,17,6)
       Min divergence: -0.18E+01 at (10,23,15)
       Max VN number:   0.26E+00 at (9,40,5)
       Total Heat Release Rate:            784.949 kW
       Radiation Loss to Boundaries:      -265.588 kW
 


 Time Stepping Wall Clock Time (s):      639.360
 Total Elapsed Wall Clock Time (s):      642.248

STOP: FDS completed successfully (CHID: job1)
